2-Methylglutaronitrile.log
 OpenBabel11162104593D

 16 15  0  0  1  0  0  0  0  0999 V2000
   -1.4148    1.6479   -0.3268 C   0  0  0  0  0  0  0  0  0  0  0  0
   -1.1193    0.2958    0.3549 C   0  0  1  0  0  0  0  0  0  0  0  0
   -1.0959    0.4484    1.4431 H   0  0  0  0  0  0  0  0  0  0  0  0
   -2.2140   -0.6511    0.0904 C   0  0  0  0  0  0  0  0  0  0  0  0
   -3.0762   -1.3963   -0.1305 N   0  0  0  0  0  0  0  0  0  0  0  0
    0.2240   -0.3433   -0.0765 C   0  0  0  0  0  0  0  0  0  0  0  0
    1.4438    0.4979    0.3536 C   0  0  0  0  0  0  0  0  0  0  0  0
    2.7090   -0.1522    0.0039 C   0  0  0  0  0  0  0  0  0  0  0  0
    3.7043   -0.6771   -0.2799 N   0  0  0  0  0  0  0  0  0  0  0  0
   -0.6628    2.3923   -0.0526 H   0  0  0  0  0  0  0  0  0  0  0  0
   -1.4173    1.5401   -1.4153 H   0  0  0  0  0  0  0  0  0  0  0  0
   -2.3912    2.0298   -0.0199 H   0  0  0  0  0  0  0  0  0  0  0  0
    0.3058   -1.3406    0.3653 H   0  0  0  0  0  0  0  0  0  0  0  0
    0.2319   -0.4753   -1.1633 H   0  0  0  0  0  0  0  0  0  0  0  0
    1.4293    1.4856   -0.1193 H   0  0  0  0  0  0  0  0  0  0  0  0
    1.4302    0.6633    1.4381 H   0  0  0  0  0  0  0  0  0  0  0  0
  1 10  1  0  0  0  0
  1 12  1  0  0  0  0
  1  2  1  0  0  0  0
  2  3  1  1  0  0  0
  4  2  1  0  0  0  0
  5  4  3  0  0  0  0
  6  7  1  0  0  0  0
  6  2  1  0  0  0  0
  6 13  1  0  0  0  0
  7 16  1  0  0  0  0
  8  7  1  0  0  0  0
  9  8  3  0  0  0  0
 11  1  1  0  0  0  0
 14  6  1  0  0  0  0
 15  7  1  0  0  0  0
M  END
$$$$