3-Phenylpropionitrile.log
 OpenBabel11162105003D

 19 19  0  0  0  0  0  0  0  0999 V2000
    3.1460    0.0007   -0.3039 C   0  0  0  0  0  0  0  0  0  0  0  0
    2.4651    1.2069   -0.1325 C   0  0  0  0  0  0  0  0  0  0  0  0
    1.1115    1.2041    0.2053 C   0  0  0  0  0  0  0  0  0  0  0  0
    0.4173   -0.0007    0.3772 C   0  0  0  0  0  0  0  0  0  0  0  0
    1.1125   -1.2047    0.2044 C   0  0  0  0  0  0  0  0  0  0  0  0
    2.4661   -1.2061   -0.1335 C   0  0  0  0  0  0  0  0  0  0  0  0
   -1.0599   -0.0014    0.7061 C   0  0  0  0  0  0  0  0  0  0  0  0
   -1.9310    0.0009   -0.5773 C   0  0  0  0  0  0  0  0  0  0  0  0
   -3.3665    0.0004   -0.2842 C   0  0  0  0  0  0  0  0  0  0  0  0
   -4.4993   -0.0001   -0.0303 N   0  0  0  0  0  0  0  0  0  0  0  0
    4.2005    0.0013   -0.5633 H   0  0  0  0  0  0  0  0  0  0  0  0
    2.9884    2.1505   -0.2566 H   0  0  0  0  0  0  0  0  0  0  0  0
    0.5888    2.1475    0.3448 H   0  0  0  0  0  0  0  0  0  0  0  0
    0.5906   -2.1487    0.3431 H   0  0  0  0  0  0  0  0  0  0  0  0
    2.9902   -2.1492   -0.2583 H   0  0  0  0  0  0  0  0  0  0  0  0
   -1.3170    0.8771    1.3065 H   0  0  0  0  0  0  0  0  0  0  0  0
   -1.3169   -0.8820    1.3033 H   0  0  0  0  0  0  0  0  0  0  0  0
   -1.6977   -0.8771   -1.1901 H   0  0  0  0  0  0  0  0  0  0  0  0
   -1.6978    0.8810   -1.1870 H   0  0  0  0  0  0  0  0  0  0  0  0
  1  6  2  0  0  0  0
  1  2  1  0  0  0  0
  2  3  2  0  0  0  0
  3 13  1  0  0  0  0
  3  4  1  0  0  0  0
  4  7  1  0  0  0  0
  5 14  1  0  0  0  0
  5  4  2  0  0  0  0
  6  5  1  0  0  0  0
  7 17  1  0  0  0  0
  7 16  1  0  0  0  0
  8  9  1  0  0  0  0
  8  7  1  0  0  0  0
  9 10  3  0  0  0  0
 11  1  1  0  0  0  0
 12  2  1  0  0  0  0
 15  6  1  0  0  0  0
 18  8  1  0  0  0  0
 19  8  1  0  0  0  0
M  END
$$$$