4-Chlorobenzonitrile.log
 OpenBabel11162105013D

 13 13  0  0  0  0  0  0  0  0999 V2000
    0.8118   -1.2151   -0.0000 C   0  0  0  0  0  0  0  0  0  0  0  0
   -0.5792   -1.2168   -0.0000 C   0  0  0  0  0  0  0  0  0  0  0  0
   -1.2633   -0.0000   -0.0000 C   0  0  0  0  0  0  0  0  0  0  0  0
   -0.5792    1.2168   -0.0000 C   0  0  0  0  0  0  0  0  0  0  0  0
    0.8118    1.2151   -0.0000 C   0  0  0  0  0  0  0  0  0  0  0  0
    1.5164   -0.0000   -0.0000 C   0  0  0  0  0  0  0  0  0  0  0  0
    2.9499    0.0000    0.0000 C   0  0  0  0  0  0  0  0  0  0  0  0
    4.1133    0.0000    0.0001 N   0  0  0  0  0  0  0  0  0  0  0  0
   -3.0150    0.0000    0.0000 Cl  0  0  0  0  0  0  0  0  0  0  0  0
    1.3565   -2.1528   -0.0001 H   0  0  0  0  0  0  0  0  0  0  0  0
   -1.1301   -2.1501    0.0000 H   0  0  0  0  0  0  0  0  0  0  0  0
   -1.1301    2.1501   -0.0000 H   0  0  0  0  0  0  0  0  0  0  0  0
    1.3565    2.1528   -0.0000 H   0  0  0  0  0  0  0  0  0  0  0  0
  1  6  2  0  0  0  0
  1  2  1  0  0  0  0
  2  3  2  0  0  0  0
  2 11  1  0  0  0  0
  3  9  1  0  0  0  0
  4  5  2  0  0  0  0
  4 12  1  0  0  0  0
  4  3  1  0  0  0  0
  5  6  1  0  0  0  0
  5 13  1  0  0  0  0
  6  7  1  0  0  0  0
  7  8  3  0  0  0  0
 10  1  1  0  0  0  0
M  END
$$$$