4-Methoxybenzonitrile.log
 OpenBabel11162105033D

 17 17  0  0  0  0  0  0  0  0999 V2000
   -2.5734    2.4093    0.0000 C   0  0  0  0  0  0  0  0  0  0  0  0
   -2.4333    0.9934    0.0000 O   0  0  0  0  0  0  0  0  0  0  0  0
   -1.1838    0.4636    0.0000 C   0  0  0  0  0  0  0  0  0  0  0  0
   -1.1209   -0.9406    0.0000 C   0  0  0  0  0  0  0  0  0  0  0  0
    0.1044   -1.5840    0.0000 C   0  0  0  0  0  0  0  0  0  0  0  0
    1.2992   -0.8371    0.0000 C   0  0  0  0  0  0  0  0  0  0  0  0
    1.2304    0.5632    0.0000 C   0  0  0  0  0  0  0  0  0  0  0  0
    0.0000    1.2151    0.0000 C   0  0  0  0  0  0  0  0  0  0  0  0
    2.5680   -1.4999    0.0000 C   0  0  0  0  0  0  0  0  0  0  0  0
    3.5995   -2.0395    0.0000 N   0  0  0  0  0  0  0  0  0  0  0  0
   -2.1246    2.8575    0.8947 H   0  0  0  0  0  0  0  0  0  0  0  0
   -2.1246    2.8575   -0.8947 H   0  0  0  0  0  0  0  0  0  0  0  0
   -3.6465    2.6023    0.0000 H   0  0  0  0  0  0  0  0  0  0  0  0
   -2.0501   -1.4997    0.0000 H   0  0  0  0  0  0  0  0  0  0  0  0
    0.1506   -2.6677    0.0000 H   0  0  0  0  0  0  0  0  0  0  0  0
    2.1470    1.1434    0.0000 H   0  0  0  0  0  0  0  0  0  0  0  0
   -0.0257    2.2977    0.0000 H   0  0  0  0  0  0  0  0  0  0  0  0
  1  2  1  0  0  0  0
  1 11  1  0  0  0  0
  3  2  1  0  0  0  0
  4  3  1  0  0  0  0
  5  4  2  0  0  0  0
  6  5  1  0  0  0  0
  7  6  2  0  0  0  0
  8  7  1  0  0  0  0
  8  3  2  0  0  0  0
  9 10  3  0  0  0  0
  9  6  1  0  0  0  0
 12  1  1  0  0  0  0
 13  1  1  0  0  0  0
 14  4  1  0  0  0  0
 15  5  1  0  0  0  0
 16  7  1  0  0  0  0
 17  8  1  0  0  0  0
M  END
$$$$