Benzonitrile.log
 OpenBabel11162105063D

 13 13  0  0  0  0  0  0  0  0999 V2000
   -2.1805    0.0000    0.0001 C   0  0  0  0  0  0  0  0  0  0  0  0
   -1.4837    1.2107    0.0000 C   0  0  0  0  0  0  0  0  0  0  0  0
   -0.0915    1.2172   -0.0001 C   0  0  0  0  0  0  0  0  0  0  0  0
    0.6100    0.0000   -0.0001 C   0  0  0  0  0  0  0  0  0  0  0  0
   -0.0915   -1.2172   -0.0001 C   0  0  0  0  0  0  0  0  0  0  0  0
   -1.4837   -1.2107    0.0000 C   0  0  0  0  0  0  0  0  0  0  0  0
    2.0448   -0.0000   -0.0000 C   0  0  0  0  0  0  0  0  0  0  0  0
    3.2081    0.0000    0.0001 N   0  0  0  0  0  0  0  0  0  0  0  0
   -3.2662   -0.0000    0.0002 H   0  0  0  0  0  0  0  0  0  0  0  0
   -2.0253    2.1514   -0.0001 H   0  0  0  0  0  0  0  0  0  0  0  0
    0.4582    2.1524   -0.0001 H   0  0  0  0  0  0  0  0  0  0  0  0
    0.4582   -2.1524   -0.0001 H   0  0  0  0  0  0  0  0  0  0  0  0
   -2.0253   -2.1514   -0.0001 H   0  0  0  0  0  0  0  0  0  0  0  0
  1  9  1  0  0  0  0
  2  1  2  0  0  0  0
  3  2  1  0  0  0  0
  4  3  2  0  0  0  0
  4  5  1  0  0  0  0
  4  7  1  0  0  0  0
  5  6  2  0  0  0  0
  6  1  1  0  0  0  0
  7  8  3  0  0  0  0
 10  2  1  0  0  0  0
 11  3  1  0  0  0  0
 12  5  1  0  0  0  0
 13  6  1  0  0  0  0
M  END
$$$$