Benzoylacetonitrile.log
 OpenBabel11162105073D

 18 18  0  0  0  0  0  0  0  0999 V2000
   -3.3144   -0.2882    0.0001 C   0  0  0  0  0  0  0  0  0  0  0  0
   -2.7994    1.0114    0.0000 C   0  0  0  0  0  0  0  0  0  0  0  0
   -1.4238    1.2143   -0.0000 C   0  0  0  0  0  0  0  0  0  0  0  0
   -0.5442    0.1192   -0.0000 C   0  0  0  0  0  0  0  0  0  0  0  0
   -1.0696   -1.1825    0.0001 C   0  0  0  0  0  0  0  0  0  0  0  0
   -2.4490   -1.3834    0.0002 C   0  0  0  0  0  0  0  0  0  0  0  0
    0.9211    0.4104   -0.0001 C   0  0  0  0  0  0  0  0  0  0  0  0
    1.3542    1.5463   -0.0002 O   0  0  0  0  0  0  0  0  0  0  0  0
    1.8848   -0.7961    0.0000 C   0  0  0  0  0  0  0  0  0  0  0  0
    3.2915   -0.4034   -0.0001 C   0  0  0  0  0  0  0  0  0  0  0  0
    4.4190   -0.1322   -0.0001 N   0  0  0  0  0  0  0  0  0  0  0  0
   -4.3887   -0.4470    0.0002 H   0  0  0  0  0  0  0  0  0  0  0  0
   -3.4724    1.8634   -0.0000 H   0  0  0  0  0  0  0  0  0  0  0  0
   -1.0002    2.2127   -0.0001 H   0  0  0  0  0  0  0  0  0  0  0  0
   -0.4135   -2.0469    0.0001 H   0  0  0  0  0  0  0  0  0  0  0  0
   -2.8475   -2.3932    0.0002 H   0  0  0  0  0  0  0  0  0  0  0  0
    1.6865   -1.4223    0.8785 H   0  0  0  0  0  0  0  0  0  0  0  0
    1.6865   -1.4225   -0.8783 H   0  0  0  0  0  0  0  0  0  0  0  0
  1  6  1  0  0  0  0
  1 12  1  0  0  0  0
  2  1  2  0  0  0  0
  3  4  2  0  0  0  0
  3  2  1  0  0  0  0
  4  5  1  0  0  0  0
  5 15  1  0  0  0  0
  5  6  2  0  0  0  0
  6 16  1  0  0  0  0
  7  4  1  0  0  0  0
  7  9  1  0  0  0  0
  8  7  2  0  0  0  0
  9 17  1  0  0  0  0
 10  9  1  0  0  0  0
 11 10  3  0  0  0  0
 13  2  1  0  0  0  0
 14  3  1  0  0  0  0
 18  9  1  0  0  0  0
M  END
$$$$