Isophthalonitrile.log
 OpenBabel11162105093D

 14 14  0  0  0  0  0  0  0  0999 V2000
   -0.0000   -2.0396   -0.0000 C   0  0  0  0  0  0  0  0  0  0  0  0
    1.2086   -1.3473    0.0001 C   0  0  0  0  0  0  0  0  0  0  0  0
    1.2098    0.0580   -0.0001 C   0  0  0  0  0  0  0  0  0  0  0  0
    0.0000    0.7645   -0.0000 C   0  0  0  0  0  0  0  0  0  0  0  0
   -1.2098    0.0580   -0.0000 C   0  0  0  0  0  0  0  0  0  0  0  0
   -1.2086   -1.3473   -0.0000 C   0  0  0  0  0  0  0  0  0  0  0  0
   -2.4537    0.7737    0.0000 C   0  0  0  0  0  0  0  0  0  0  0  0
   -3.4645    1.3484    0.0000 N   0  0  0  0  0  0  0  0  0  0  0  0
    2.4537    0.7737   -0.0001 C   0  0  0  0  0  0  0  0  0  0  0  0
    3.4645    1.3484    0.0001 N   0  0  0  0  0  0  0  0  0  0  0  0
   -0.0000   -3.1244    0.0000 H   0  0  0  0  0  0  0  0  0  0  0  0
    2.1520   -1.8820    0.0001 H   0  0  0  0  0  0  0  0  0  0  0  0
    0.0000    1.8482   -0.0000 H   0  0  0  0  0  0  0  0  0  0  0  0
   -2.1520   -1.8820    0.0000 H   0  0  0  0  0  0  0  0  0  0  0  0
  1  6  2  0  0  0  0
  1 11  1  0  0  0  0
  1  2  1  0  0  0  0
  2 12  1  0  0  0  0
  3  9  1  0  0  0  0
  3  4  1  0  0  0  0
  3  2  2  0  0  0  0
  4 13  1  0  0  0  0
  4  5  2  0  0  0  0
  5  7  1  0  0  0  0
  6  5  1  0  0  0  0
  6 14  1  0  0  0  0
  7  8  3  0  0  0  0
  9 10  3  0  0  0  0
M  END
$$$$