Mandelonitrile.log
 OpenBabel11162105093D

 17 17  0  0  1  0  0  0  0  0999 V2000
   -2.7917    0.4033   -0.1324 C   0  0  0  0  0  0  0  0  0  0  0  0
   -2.3579   -0.9206   -0.0357 C   0  0  0  0  0  0  0  0  0  0  0  0
   -1.0025   -1.2034    0.1239 C   0  0  0  0  0  0  0  0  0  0  0  0
   -0.0673   -0.1622    0.1851 C   0  0  0  0  0  0  0  0  0  0  0  0
   -0.5041    1.1623    0.0859 C   0  0  0  0  0  0  0  0  0  0  0  0
   -1.8629    1.4419   -0.0709 C   0  0  0  0  0  0  0  0  0  0  0  0
    1.4021   -0.5293    0.3978 C   0  0  2  0  0  0  0  0  0  0  0  0
    1.5646   -0.7701    1.4561 H   0  0  0  0  0  0  0  0  0  0  0  0
    2.3166    0.5921    0.0707 C   0  0  0  0  0  0  0  0  0  0  0  0
    3.0438    1.4542   -0.2030 N   0  0  0  0  0  0  0  0  0  0  0  0
    1.7891   -1.7058   -0.2966 O   0  0  0  0  0  0  0  0  0  0  0  0
   -3.8478    0.6230   -0.2574 H   0  0  0  0  0  0  0  0  0  0  0  0
   -3.0754   -1.7344   -0.0843 H   0  0  0  0  0  0  0  0  0  0  0  0
   -0.6591   -2.2305    0.1943 H   0  0  0  0  0  0  0  0  0  0  0  0
    0.2142    1.9756    0.1235 H   0  0  0  0  0  0  0  0  0  0  0  0
   -2.1919    2.4736   -0.1510 H   0  0  0  0  0  0  0  0  0  0  0  0
    1.5817   -1.5733   -1.2334 H   0  0  0  0  0  0  0  0  0  0  0  0
  1  6  2  0  0  0  0
  1  2  1  0  0  0  0
  2  3  2  0  0  0  0
  3  4  1  0  0  0  0
  3 14  1  0  0  0  0
  4  7  1  0  0  0  0
  5 15  1  0  0  0  0
  5  4  2  0  0  0  0
  6  5  1  0  0  0  0
  7  8  1  1  0  0  0
  9  7  1  0  0  0  0
 10  9  3  0  0  0  0
 11  7  1  0  0  0  0
 12  1  1  0  0  0  0
 13  2  1  0  0  0  0
 16  6  1  0  0  0  0
 17 11  1  0  0  0  0
M  END
$$$$