Propionitrile.log
 OpenBabel11162105103D

  9  8  0  0  0  0  0  0  0  0999 V2000
    1.5595   -0.4489   -0.0000 C   0  0  0  0  0  0  0  0  0  0  0  0
    0.4837    0.6515   -0.0000 C   0  0  0  0  0  0  0  0  0  0  0  0
   -0.8791    0.1111    0.0002 C   0  0  0  0  0  0  0  0  0  0  0  0
   -1.9525   -0.3308   -0.0001 N   0  0  0  0  0  0  0  0  0  0  0  0
    1.4702   -1.0831    0.8854 H   0  0  0  0  0  0  0  0  0  0  0  0
    1.4701   -1.0833   -0.8852 H   0  0  0  0  0  0  0  0  0  0  0  0
    2.5534    0.0064   -0.0001 H   0  0  0  0  0  0  0  0  0  0  0  0
    0.5944    1.2968   -0.8792 H   0  0  0  0  0  0  0  0  0  0  0  0
    0.5945    1.2969    0.8789 H   0  0  0  0  0  0  0  0  0  0  0  0
  1  5  1  0  0  0  0
  2  1  1  0  0  0  0
  2  3  1  0  0  0  0
  2  9  1  0  0  0  0
  4  3  3  0  0  0  0
  6  1  1  0  0  0  0
  7  1  1  0  0  0  0
  8  2  1  0  0  0  0
M  END
$$$$